(SAIFILE
(SAIFVERSION "2.0" "lib")
(DIRECTION "forward")
(DESIGN )
(DATE "Fri Jan 21 18:50:34 2011")
(VENDOR "Synopsys, Inc")
(PROGRAM_NAME "Power Compiler lib2saif")
(VERSION "X-2005.09-SP3")
(DIVIDER / )
(LIBRARY "NangateOpenCellLibrary_PDKv1_2_v2008_10_typical_nldm"
  (MODULE "AND2_X1"
    (PORT
      (A1
        (COND (!ZN * !A2) RISE_FALL
         COND_DEFAULT RISE_FALL)
      )
      (A2
        (COND (!ZN * !A1) RISE_FALL
         COND_DEFAULT RISE_FALL)
      )
      (ZN
        (IOPATH A1 IOPATH A2)
      )
    )
    (LEAKAGE
     (COND (!A2 * !A1)
      COND (!A2 * A1)
      COND (A2 * !A1)
      COND (A2 * A1)
      COND_DEFAULT)
    )
  )
  (MODULE "AND2_X2"
    (PORT
      (A1
        (COND (!ZN * !A2) RISE_FALL
         COND_DEFAULT RISE_FALL)
      )
      (A2
        (COND (!ZN * !A1) RISE_FALL
         COND_DEFAULT RISE_FALL)
      )
      (ZN
        (IOPATH A1 IOPATH A2)
      )
    )
    (LEAKAGE
     (COND (!A2 * !A1)
      COND (!A2 * A1)
      COND (A2 * !A1)
      COND (A2 * A1)
      COND_DEFAULT)
    )
  )
  (MODULE "AND2_X4"
    (PORT
      (A1
        (COND (!ZN * !A2) RISE_FALL
         COND_DEFAULT RISE_FALL)
      )
      (A2
        (COND (!ZN * !A1) RISE_FALL
         COND_DEFAULT RISE_FALL)
      )
      (ZN
        (IOPATH A1 IOPATH A2)
      )
    )
    (LEAKAGE
     (COND (!A2 * !A1)
      COND (!A2 * A1)
      COND (A2 * !A1)
      COND (A2 * A1)
      COND_DEFAULT)
    )
  )
  (MODULE "AND3_X1"
    (PORT
      (A1
        (COND (A3 * !A2 * !ZN) RISE_FALL
         COND (!A3 * !A2 * !ZN) RISE_FALL
         COND (!A3 * A2 * !ZN) RISE_FALL
         COND_DEFAULT RISE_FALL)
      )
      (A2
        (COND (!A3 * !A1 * !ZN) RISE_FALL
         COND (!A3 * A1 * !ZN) RISE_FALL
         COND (A3 * !A1 * !ZN) RISE_FALL
         COND_DEFAULT RISE_FALL)
      )
      (A3
        (COND (A2 * !A1 * !ZN) RISE_FALL
         COND (!A2 * A1 * !ZN) RISE_FALL
         COND (!A2 * !A1 * !ZN) RISE_FALL
         COND_DEFAULT RISE_FALL)
      )
      (ZN
        (IOPATH A1 IOPATH A2 IOPATH A3)
      )
    )
    (LEAKAGE
     (COND (!A2 * !A1 * !A3)
      COND (!A2 * !A1 * A3)
      COND (!A2 * A1 * !A3)
      COND (!A2 * A1 * A3)
      COND (A2 * !A1 * !A3)
      COND (A2 * !A1 * A3)
      COND (A2 * A1 * !A3)
      COND (A2 * A1 * A3)
      COND_DEFAULT)
    )
  )
  (MODULE "AND3_X2"
    (PORT
      (A1
        (COND (A3 * !A2 * !ZN) RISE_FALL
         COND (!A3 * !A2 * !ZN) RISE_FALL
         COND (!A3 * A2 * !ZN) RISE_FALL
         COND_DEFAULT RISE_FALL)
      )
      (A2
        (COND (!A3 * !A1 * !ZN) RISE_FALL
         COND (!A3 * A1 * !ZN) RISE_FALL
         COND (A3 * !A1 * !ZN) RISE_FALL
         COND_DEFAULT RISE_FALL)
      )
      (A3
        (COND (A2 * !A1 * !ZN) RISE_FALL
         COND (!A2 * A1 * !ZN) RISE_FALL
         COND (!A2 * !A1 * !ZN) RISE_FALL
         COND_DEFAULT RISE_FALL)
      )
      (ZN
        (IOPATH A1 IOPATH A2 IOPATH A3)
      )
    )
    (LEAKAGE
     (COND (!A2 * !A1 * !A3)
      COND (!A2 * !A1 * A3)
      COND (!A2 * A1 * !A3)
      COND (!A2 * A1 * A3)
      COND (A2 * !A1 * !A3)
      COND (A2 * !A1 * A3)
      COND (A2 * A1 * !A3)
      COND (A2 * A1 * A3)
      COND_DEFAULT)
    )
  )
  (MODULE "AND3_X4"
    (PORT
      (A1
        (COND (A3 * !A2 * !ZN) RISE_FALL
         COND (!A3 * !A2 * !ZN) RISE_FALL
         COND (!A3 * A2 * !ZN) RISE_FALL
         COND_DEFAULT RISE_FALL)
      )
      (A2
        (COND (!A3 * !A1 * !ZN) RISE_FALL
         COND (!A3 * A1 * !ZN) RISE_FALL
         COND (A3 * !A1 * !ZN) RISE_FALL
         COND_DEFAULT RISE_FALL)
      )
      (A3
        (COND (A2 * !A1 * !ZN) RISE_FALL
         COND (!A2 * A1 * !ZN) RISE_FALL
         COND (!A2 * !A1 * !ZN) RISE_FALL
         COND_DEFAULT RISE_FALL)
      )
      (ZN
        (IOPATH A1 IOPATH A2 IOPATH A3)
      )
    )
    (LEAKAGE
     (COND (!A2 * !A1 * !A3)
      COND (!A2 * !A1 * A3)
      COND (!A2 * A1 * !A3)
      COND (!A2 * A1 * A3)
      COND (A2 * !A1 * !A3)
      COND (A2 * !A1 * A3)
      COND (A2 * A1 * !A3)
      COND (A2 * A1 * A3)
      COND_DEFAULT)
    )
  )
  (MODULE "AND4_X1"
    (PORT
      (A1
        (COND (!A3 * !A2 * A4 * !ZN) RISE_FALL
         COND (A3 * !A2 * A4 * !ZN) RISE_FALL
         COND (!A3 * A2 * !A4 * !ZN) RISE_FALL
         COND (!A3 * !A2 * !A4 * !ZN) RISE_FALL
         COND (!A3 * A2 * A4 * !ZN) RISE_FALL
         COND (A3 * !A2 * !A4 * !ZN) RISE_FALL
         COND (A3 * A2 * !A4 * !ZN) RISE_FALL
         COND_DEFAULT RISE_FALL)
      )
      (A2
        (COND (A3 * !A1 * A4 * !ZN) RISE_FALL
         COND (!A3 * !A1 * !A4 * !ZN) RISE_FALL
         COND (!A3 * A1 * !A4 * !ZN) RISE_FALL
         COND (A3 * A1 * !A4 * !ZN) RISE_FALL
         COND (!A3 * !A1 * A4 * !ZN) RISE_FALL
         COND (!A3 * A1 * A4 * !ZN) RISE_FALL
         COND (A3 * !A1 * !A4 * !ZN) RISE_FALL
         COND_DEFAULT RISE_FALL)
      )
      (A3
        (COND (!A2 * !A1 * A4 * !ZN) RISE_FALL
         COND (!A2 * !A1 * !A4 * !ZN) RISE_FALL
         COND (A2 * !A1 * !A4 * !ZN) RISE_FALL
         COND (!A2 * A1 * !A4 * !ZN) RISE_FALL
         COND (A2 * !A1 * A4 * !ZN) RISE_FALL
         COND (!A2 * A1 * A4 * !ZN) RISE_FALL
         COND (A2 * A1 * !A4 * !ZN) RISE_FALL
         COND_DEFAULT RISE_FALL)
      )
      (A4
        (COND (A2 * A1 * !A3 * !ZN) RISE_FALL
         COND (!A2 * A1 * !A3 * !ZN) RISE_FALL
         COND (A2 * !A1 * !A3 * !ZN) RISE_FALL
         COND (A2 * !A1 * A3 * !ZN) RISE_FALL
         COND (!A2 * A1 * A3 * !ZN) RISE_FALL
         COND (!A2 * !A1 * A3 * !ZN) RISE_FALL
         COND (!A2 * !A1 * !A3 * !ZN) RISE_FALL
         COND_DEFAULT RISE_FALL)
      )
      (ZN
        (IOPATH A1 IOPATH A2 IOPATH A3 IOPATH A4)
      )
    )
    (LEAKAGE
     (COND (!A2 * !A1 * !A3 * !A4)
      COND (!A2 * !A1 * A3 * !A4)
      COND (!A2 * A1 * !A3 * !A4)
      COND (!A2 * A1 * A3 * !A4)
      COND (A2 * !A1 * !A3 * !A4)
      COND (A2 * !A1 * A3 * !A4)
      COND (A2 * A1 * !A3 * !A4)
      COND (A2 * A1 * A3 * !A4)
      COND (!A2 * !A1 * !A3 * A4)
      COND (!A2 * !A1 * A3 * A4)
      COND (!A2 * A1 * !A3 * A4)
      COND (!A2 * A1 * A3 * A4)
      COND (A2 * !A1 * !A3 * A4)
      COND (A2 * !A1 * A3 * A4)
      COND (A2 * A1 * !A3 * A4)
      COND (A2 * A1 * A3 * A4)
      COND_DEFAULT)
    )
  )
  (MODULE "AND4_X2"
    (PORT
      (A1
        (COND (!A3 * !A2 * A4 * !ZN) RISE_FALL
         COND (A3 * !A2 * A4 * !ZN) RISE_FALL
         COND (!A3 * A2 * !A4 * !ZN) RISE_FALL
         COND (!A3 * !A2 * !A4 * !ZN) RISE_FALL
         COND (!A3 * A2 * A4 * !ZN) RISE_FALL
         COND (A3 * !A2 * !A4 * !ZN) RISE_FALL
         COND (A3 * A2 * !A4 * !ZN) RISE_FALL
         COND_DEFAULT RISE_FALL)
      )
      (A2
        (COND (A3 * !A1 * A4 * !ZN) RISE_FALL
         COND (!A3 * !A1 * !A4 * !ZN) RISE_FALL
         COND (!A3 * A1 * !A4 * !ZN) RISE_FALL
         COND (A3 * A1 * !A4 * !ZN) RISE_FALL
         COND (!A3 * !A1 * A4 * !ZN) RISE_FALL
         COND (!A3 * A1 * A4 * !ZN) RISE_FALL
         COND (A3 * !A1 * !A4 * !ZN) RISE_FALL
         COND_DEFAULT RISE_FALL)
      )
      (A3
        (COND (!A2 * !A1 * A4 * !ZN) RISE_FALL
         COND (!A2 * !A1 * !A4 * !ZN) RISE_FALL
         COND (A2 * !A1 * !A4 * !ZN) RISE_FALL
         COND (!A2 * A1 * !A4 * !ZN) RISE_FALL
         COND (A2 * !A1 * A4 * !ZN) RISE_FALL
         COND (!A2 * A1 * A4 * !ZN) RISE_FALL
         COND (A2 * A1 * !A4 * !ZN) RISE_FALL
         COND_DEFAULT RISE_FALL)
      )
      (A4
        (COND (A2 * A1 * !A3 * !ZN) RISE_FALL
         COND (!A2 * A1 * !A3 * !ZN) RISE_FALL
         COND (A2 * !A1 * !A3 * !ZN) RISE_FALL
         COND (A2 * !A1 * A3 * !ZN) RISE_FALL
         COND (!A2 * A1 * A3 * !ZN) RISE_FALL
         COND (!A2 * !A1 * A3 * !ZN) RISE_FALL
         COND (!A2 * !A1 * !A3 * !ZN) RISE_FALL
         COND_DEFAULT RISE_FALL)
      )
      (ZN
        (IOPATH A1 IOPATH A2 IOPATH A3 IOPATH A4)
      )
    )
    (LEAKAGE
     (COND (!A2 * !A1 * !A3 * !A4)
      COND (!A2 * !A1 * A3 * !A4)
      COND (!A2 * A1 * !A3 * !A4)
      COND (!A2 * A1 * A3 * !A4)
      COND (A2 * !A1 * !A3 * !A4)
      COND (A2 * !A1 * A3 * !A4)
      COND (A2 * A1 * !A3 * !A4)
      COND (A2 * A1 * A3 * !A4)
      COND (!A2 * !A1 * !A3 * A4)
      COND (!A2 * !A1 * A3 * A4)
      COND (!A2 * A1 * !A3 * A4)
      COND (!A2 * A1 * A3 * A4)
      COND (A2 * !A1 * !A3 * A4)
      COND (A2 * !A1 * A3 * A4)
      COND (A2 * A1 * !A3 * A4)
      COND (A2 * A1 * A3 * A4)
      COND_DEFAULT)
    )
  )
  (MODULE "AND4_X4"
    (PORT
      (A1
        (COND (!A3 * !A2 * A4 * !ZN) RISE_FALL
         COND (A3 * !A2 * A4 * !ZN) RISE_FALL
         COND (!A3 * A2 * !A4 * !ZN) RISE_FALL
         COND (!A3 * !A2 * !A4 * !ZN) RISE_FALL
         COND (!A3 * A2 * A4 * !ZN) RISE_FALL
         COND (A3 * !A2 * !A4 * !ZN) RISE_FALL
         COND (A3 * A2 * !A4 * !ZN) RISE_FALL
         COND_DEFAULT RISE_FALL)
      )
      (A2
        (COND (A3 * !A1 * A4 * !ZN) RISE_FALL
         COND (!A3 * !A1 * !A4 * !ZN) RISE_FALL
         COND (!A3 * A1 * !A4 * !ZN) RISE_FALL
         COND (A3 * A1 * !A4 * !ZN) RISE_FALL
         COND (!A3 * !A1 * A4 * !ZN) RISE_FALL
         COND (!A3 * A1 * A4 * !ZN) RISE_FALL
         COND (A3 * !A1 * !A4 * !ZN) RISE_FALL
         COND_DEFAULT RISE_FALL)
      )
      (A3
        (COND (!A2 * !A1 * A4 * !ZN) RISE_FALL
         COND (!A2 * !A1 * !A4 * !ZN) RISE_FALL
         COND (A2 * !A1 * !A4 * !ZN) RISE_FALL
         COND (!A2 * A1 * !A4 * !ZN) RISE_FALL
         COND (A2 * !A1 * A4 * !ZN) RISE_FALL
         COND (!A2 * A1 * A4 * !ZN) RISE_FALL
         COND (A2 * A1 * !A4 * !ZN) RISE_FALL
         COND_DEFAULT RISE_FALL)
      )
      (A4
        (COND (A2 * A1 * !A3 * !ZN) RISE_FALL
         COND (!A2 * A1 * !A3 * !ZN) RISE_FALL
         COND (A2 * !A1 * !A3 * !ZN) RISE_FALL
         COND (A2 * !A1 * A3 * !ZN) RISE_FALL
         COND (!A2 * A1 * A3 * !ZN) RISE_FALL
         COND (!A2 * !A1 * A3 * !ZN) RISE_FALL
         COND (!A2 * !A1 * !A3 * !ZN) RISE_FALL
         COND_DEFAULT RISE_FALL)
      )
      (ZN
        (IOPATH A1 IOPATH A2 IOPATH A3 IOPATH A4)
      )
    )
    (LEAKAGE
     (COND (!A2 * !A1 * !A3 * !A4)
      COND (!A2 * !A1 * A3 * !A4)
      COND (!A2 * A1 * !A3 * !A4)
      COND (!A2 * A1 * A3 * !A4)
      COND (A2 * !A1 * !A3 * !A4)
      COND (A2 * !A1 * A3 * !A4)
      COND (A2 * A1 * !A3 * !A4)
      COND (A2 * A1 * A3 * !A4)
      COND (!A2 * !A1 * !A3 * A4)
      COND (!A2 * !A1 * A3 * A4)
      COND (!A2 * A1 * !A3 * A4)
      COND (!A2 * A1 * A3 * A4)
      COND (A2 * !A1 * !A3 * A4)
      COND (A2 * !A1 * A3 * A4)
      COND (A2 * A1 * !A3 * A4)
      COND (A2 * A1 * A3 * A4)
      COND_DEFAULT)
    )
  )
  (MODULE "ANTENNA_X1"
    (LEAKAGE
     (COND !A
      COND A
      COND_DEFAULT)
    )
  )
  (MODULE "AOI211_X1"
    (PORT
      (A
        (COND (C1 * B * C2 * !ZN) RISE_FALL
         COND (!C1 * B * !C2 * !ZN) RISE_FALL
         COND (C1 * !B * C2 * !ZN) RISE_FALL
         COND (!C1 * B * C2 * !ZN) RISE_FALL
         COND (C1 * B * !C2 * !ZN) RISE_FALL
         COND_DEFAULT RISE_FALL)
      )
      (B
        (COND (C1 * A * C2 * !ZN) RISE_FALL
         COND (C1 * !A * C2 * !ZN) RISE_FALL
         COND (C1 * A * !C2 * !ZN) RISE_FALL
         COND (!C1 * A * !C2 * !ZN) RISE_FALL
         COND (!C1 * A * C2 * !ZN) RISE_FALL
         COND_DEFAULT RISE_FALL)
      )
      (C1
        (COND (!B * !A * !C2 * ZN) RISE_FALL
         COND (!B * A * !C2 * !ZN) RISE_FALL
         COND (B * !A * !C2 * !ZN) RISE_FALL
         COND (B * A * !C2 * !ZN) RISE_FALL
         COND (B * A * C2 * !ZN) RISE_FALL
         COND (!B * A * C2 * !ZN) RISE_FALL
         COND (B * !A * C2 * !ZN) RISE_FALL
         COND_DEFAULT RISE_FALL)
      )
      (C2
        (COND (B * !A * C1 * !ZN) RISE_FALL
         COND (B * A * C1 * !ZN) RISE_FALL
         COND (B * !A * !C1 * !ZN) RISE_FALL
         COND (B * A * !C1 * !ZN) RISE_FALL
         COND (!B * A * C1 * !ZN) RISE_FALL
         COND (!B * !A * !C1 * ZN) RISE_FALL
         COND (!B * A * !C1 * !ZN) RISE_FALL
         COND_DEFAULT RISE_FALL)
      )
      (ZN
        (COND (!C1 * !B * !C2) RISE_FALL (IOPATH A)
         COND (!C1 * !B * C2) RISE_FALL (IOPATH A)
         COND (C1 * !B * !C2) RISE_FALL (IOPATH A)
         COND (!C1 * !A * !C2) RISE_FALL (IOPATH B)
         COND (!C1 * !A * C2) RISE_FALL (IOPATH B)
         COND (C1 * !A * !C2) RISE_FALL (IOPATH B)
         COND_DEFAULT RISE_FALL (IOPATH C1 IOPATH C2))
      )
    )
    (LEAKAGE
     (COND (!B * !A * !C1 * !C2)
      COND (!B * A * !C1 * !C2)
      COND (B * !A * !C1 * !C2)
      COND (B * A * !C1 * !C2)
      COND (!B * !A * !C1 * C2)
      COND (!B * A * !C1 * C2)
      COND (B * !A * !C1 * C2)
      COND (B * A * !C1 * C2)
      COND (!B * !A * C1 * !C2)
      COND (!B * A * C1 * !C2)
      COND (B * !A * C1 * !C2)
      COND (B * A * C1 * !C2)
      COND (!B * !A * C1 * C2)
      COND (!B * A * C1 * C2)
      COND (B * !A * C1 * C2)
      COND (B * A * C1 * C2)
      COND_DEFAULT)
    )
  )
  (MODULE "AOI211_X2"
    (PORT
      (A
        (COND (C1 * B * C2 * !ZN) RISE_FALL
         COND (!C1 * B * !C2 * !ZN) RISE_FALL
         COND (C1 * !B * C2 * !ZN) RISE_FALL
         COND (!C1 * B * C2 * !ZN) RISE_FALL
         COND (C1 * B * !C2 * !ZN) RISE_FALL
         COND_DEFAULT RISE_FALL)
      )
      (B
        (COND (C1 * A * C2 * !ZN) RISE_FALL
         COND (C1 * !A * C2 * !ZN) RISE_FALL
         COND (C1 * A * !C2 * !ZN) RISE_FALL
         COND (!C1 * A * !C2 * !ZN) RISE_FALL
         COND (!C1 * A * C2 * !ZN) RISE_FALL
         COND_DEFAULT RISE_FALL)
      )
      (C1
        (COND (!B * !A * !C2 * ZN) RISE_FALL
         COND (!B * A * !C2 * !ZN) RISE_FALL
         COND (B * !A * !C2 * !ZN) RISE_FALL
         COND (B * A * !C2 * !ZN) RISE_FALL
         COND (B * A * C2 * !ZN) RISE_FALL
         COND (!B * A * C2 * !ZN) RISE_FALL
         COND (B * !A * C2 * !ZN) RISE_FALL
         COND_DEFAULT RISE_FALL)
      )
      (C2
        (COND (B * !A * C1 * !ZN) RISE_FALL
         COND (B * A * C1 * !ZN) RISE_FALL
         COND (B * !A * !C1 * !ZN) RISE_FALL
         COND (B * A * !C1 * !ZN) RISE_FALL
         COND (!B * A * C1 * !ZN) RISE_FALL
         COND (!B * !A * !C1 * ZN) RISE_FALL
         COND (!B * A * !C1 * !ZN) RISE_FALL
         COND_DEFAULT RISE_FALL)
      )
      (ZN
        (COND (!C1 * !B * !C2) RISE_FALL (IOPATH A)
         COND (!C1 * !B * C2) RISE_FALL (IOPATH A)
         COND (C1 * !B * !C2) RISE_FALL (IOPATH A)
         COND (!C1 * !A * !C2) RISE_FALL (IOPATH B)
         COND (!C1 * !A * C2) RISE_FALL (IOPATH B)
         COND (C1 * !A * !C2) RISE_FALL (IOPATH B)
         COND_DEFAULT RISE_FALL (IOPATH C1 IOPATH C2))
      )
    )
    (LEAKAGE
     (COND (!B * !A * !C1 * !C2)
      COND (!B * A * !C1 * !C2)
      COND (B * !A * !C1 * !C2)
      COND (B * A * !C1 * !C2)
      COND (!B * !A * !C1 * C2)
      COND (!B * A * !C1 * C2)
      COND (B * !A * !C1 * C2)
      COND (B * A * !C1 * C2)
      COND (!B * !A * C1 * !C2)
      COND (!B * A * C1 * !C2)
      COND (B * !A * C1 * !C2)
      COND (B * A * C1 * !C2)
      COND (!B * !A * C1 * C2)
      COND (!B * A * C1 * C2)
      COND (B * !A * C1 * C2)
      COND (B * A * C1 * C2)
      COND_DEFAULT)
    )
  )
  (MODULE "AOI211_X4"
    (PORT
      (A
        (COND (C1 * B * C2 * !ZN) RISE_FALL
         COND (!C1 * B * !C2 * !ZN) RISE_FALL
         COND (C1 * !B * C2 * !ZN) RISE_FALL
         COND (!C1 * B * C2 * !ZN) RISE_FALL
         COND (C1 * B * !C2 * !ZN) RISE_FALL
         COND_DEFAULT RISE_FALL)
      )
      (B
        (COND (C1 * A * C2 * !ZN) RISE_FALL
         COND (C1 * !A * C2 * !ZN) RISE_FALL
         COND (C1 * A * !C2 * !ZN) RISE_FALL
         COND (!C1 * A * !C2 * !ZN) RISE_FALL
         COND (!C1 * A * C2 * !ZN) RISE_FALL
         COND_DEFAULT RISE_FALL)
      )
      (C1
        (COND (!B * !A * !C2 * ZN) RISE_FALL
         COND (!B * A * !C2 * !ZN) RISE_FALL
         COND (B * !A * !C2 * !ZN) RISE_FALL
         COND (B * A * !C2 * !ZN) RISE_FALL
         COND (B * A * C2 * !ZN) RISE_FALL
         COND (!B * A * C2 * !ZN) RISE_FALL
         COND (B * !A * C2 * !ZN) RISE_FALL
         COND_DEFAULT RISE_FALL)
      )
      (C2
        (COND (B * !A * C1 * !ZN) RISE_FALL
         COND (B * A * C1 * !ZN) RISE_FALL
         COND (B * !A * !C1 * !ZN) RISE_FALL
         COND (B * A * !C1 * !ZN) RISE_FALL
         COND (!B * A * C1 * !ZN) RISE_FALL
         COND (!B * !A * !C1 * ZN) RISE_FALL
         COND (!B * A * !C1 * !ZN) RISE_FALL
         COND_DEFAULT RISE_FALL)
      )
      (ZN
        (COND (!C1 * !B * !C2) RISE_FALL (IOPATH A)
         COND (!C1 * !B * C2) RISE_FALL (IOPATH A)
         COND (C1 * !B * !C2) RISE_FALL (IOPATH A)
         COND (!C1 * !A * !C2) RISE_FALL (IOPATH B)
         COND (!C1 * !A * C2) RISE_FALL (IOPATH B)
         COND (C1 * !A * !C2) RISE_FALL (IOPATH B)
         COND_DEFAULT RISE_FALL (IOPATH C1 IOPATH C2))
      )
    )
    (LEAKAGE
     (COND (!B * !A * !C1 * !C2)
      COND (!B * A * !C1 * !C2)
      COND (B * !A * !C1 * !C2)
      COND (B * A * !C1 * !C2)
      COND (!B * !A * !C1 * C2)
      COND (!B * A * !C1 * C2)
      COND (B * !A * !C1 * C2)
      COND (B * A * !C1 * C2)
      COND (!B * !A * C1 * !C2)
      COND (!B * A * C1 * !C2)
      COND (B * !A * C1 * !C2)
      COND (B * A * C1 * !C2)
      COND (!B * !A * C1 * C2)
      COND (!B * A * C1 * C2)
      COND (B * !A * C1 * C2)
      COND (B * A * C1 * C2)
      COND_DEFAULT)
    )
  )
  (MODULE "AOI21_X1"
    (PORT
      (A
        (COND (B2 * B1 * !ZN) RISE_FALL
         COND_DEFAULT RISE_FALL)
      )
      (B1
        (COND (B2 * A * !ZN) RISE_FALL
         COND (!B2 * A * !ZN) RISE_FALL
         COND (!B2 * !A * ZN) RISE_FALL
         COND_DEFAULT RISE_FALL)
      )
      (B2
        (COND (!B1 * A * !ZN) RISE_FALL
         COND (B1 * A * !ZN) RISE_FALL
         COND (!B1 * !A * ZN) RISE_FALL
         COND_DEFAULT RISE_FALL)
      )
      (ZN
        (COND (!B2 * !B1) RISE_FALL (IOPATH A)
         COND (B2 * !B1) RISE_FALL (IOPATH A)
         COND (!B2 * B1) RISE_FALL (IOPATH A)
         COND_DEFAULT RISE_FALL (IOPATH B1 IOPATH B2))
      )
    )
    (LEAKAGE
     (COND (!B1 * !A * !B2)
      COND (!B1 * A * !B2)
      COND (B1 * !A * !B2)
      COND (B1 * A * !B2)
      COND (!B1 * !A * B2)
      COND (!B1 * A * B2)
      COND (B1 * !A * B2)
      COND (B1 * A * B2)
      COND_DEFAULT)
    )
  )
  (MODULE "AOI21_X2"
    (PORT
      (A
        (COND (B2 * B1 * !ZN) RISE_FALL
         COND_DEFAULT RISE_FALL)
      )
      (B1
        (COND (B2 * A * !ZN) RISE_FALL
         COND (!B2 * A * !ZN) RISE_FALL
         COND (!B2 * !A * ZN) RISE_FALL
         COND_DEFAULT RISE_FALL)
      )
      (B2
        (COND (!B1 * A * !ZN) RISE_FALL
         COND (B1 * A * !ZN) RISE_FALL
         COND (!B1 * !A * ZN) RISE_FALL
         COND_DEFAULT RISE_FALL)
      )
      (ZN
        (COND (!B2 * !B1) RISE_FALL (IOPATH A)
         COND (B2 * !B1) RISE_FALL (IOPATH A)
         COND (!B2 * B1) RISE_FALL (IOPATH A)
         COND_DEFAULT RISE_FALL (IOPATH B1 IOPATH B2))
      )
    )
    (LEAKAGE
     (COND (!B1 * !A * !B2)
      COND (!B1 * A * !B2)
      COND (B1 * !A * !B2)
      COND (B1 * A * !B2)
      COND (!B1 * !A * B2)
      COND (!B1 * A * B2)
      COND (B1 * !A * B2)
      COND (B1 * A * B2)
      COND_DEFAULT)
    )
  )
  (MODULE "AOI21_X4"
    (PORT
      (A
        (COND (B2 * B1 * !ZN) RISE_FALL
         COND_DEFAULT RISE_FALL)
      )
      (B1
        (COND (B2 * A * !ZN) RISE_FALL
         COND (!B2 * A * !ZN) RISE_FALL
         COND (!B2 * !A * ZN) RISE_FALL
         COND_DEFAULT RISE_FALL)
      )
      (B2
        (COND (!B1 * A * !ZN) RISE_FALL
         COND (B1 * A * !ZN) RISE_FALL
         COND (!B1 * !A * ZN) RISE_FALL
         COND_DEFAULT RISE_FALL)
      )
      (ZN
        (COND (!B2 * !B1) RISE_FALL (IOPATH A)
         COND (B2 * !B1) RISE_FALL (IOPATH A)
         COND (!B2 * B1) RISE_FALL (IOPATH A)
         COND_DEFAULT RISE_FALL (IOPATH B1 IOPATH B2))
      )
    )
    (LEAKAGE
     (COND (!B1 * !A * !B2)
      COND (!B1 * A * !B2)
      COND (B1 * !A * !B2)
      COND (B1 * A * !B2)
      COND (!B1 * !A * B2)
      COND (!B1 * A * B2)
      COND (B1 * !A * B2)
      COND (B1 * A * B2)
      COND_DEFAULT)
    )
  )
  (MODULE "AOI221_X1"
    (PORT
      (A
        (COND (B2 * B1 * C1 * C2 * !ZN) RISE_FALL
         COND (B2 * B1 * !C1 * !C2 * !ZN) RISE_FALL
         COND (B2 * !B1 * C1 * C2 * !ZN) RISE_FALL
         COND (!B2 * B1 * C1 * C2 * !ZN) RISE_FALL
         COND (B2 * B1 * C1 * !C2 * !ZN) RISE_FALL
         COND (B2 * B1 * !C1 * C2 * !ZN) RISE_FALL
         COND (!B2 * !B1 * C1 * C2 * !ZN) RISE_FALL
         COND_DEFAULT RISE_FALL)
      )
      (B1
        (COND (B2 * A * !C1 * C2 * !ZN) RISE_FALL
         COND (!B2 * !A * C1 * !C2 * ZN) RISE_FALL
         COND (!B2 * !A * !C1 * C2 * ZN) RISE_FALL
         COND (B2 * A * !C1 * !C2 * !ZN) RISE_FALL
         COND (B2 * !A * C1 * C2 * !ZN) RISE_FALL
         COND (B2 * A * C1 * !C2 * !ZN) RISE_FALL
         COND (!B2 * A * C1 * !C2 * !ZN) RISE_FALL
         COND (B2 * A * C1 * C2 * !ZN) RISE_FALL
         COND (!B2 * A * C1 * C2 * !ZN) RISE_FALL
         COND (!B2 * !A * C1 * C2 * !ZN) RISE_FALL
         COND (!B2 * !A * !C1 * !C2 * ZN) RISE_FALL
         COND (!B2 * A * !C1 * C2 * !ZN) RISE_FALL
         COND (!B2 * A * !C1 * !C2 * !ZN) RISE_FALL
         COND_DEFAULT RISE_FALL)
      )
      (B2
        (COND (!B1 * A * !C1 * C2 * !ZN) RISE_FALL
         COND (!B1 * !A * !C1 * C2 * ZN) RISE_FALL
         COND (B1 * A * C1 * !C2 * !ZN) RISE_FALL
         COND (B1 * A * !C1 * C2 * !ZN) RISE_FALL
         COND (B1 * !A * C1 * C2 * !ZN) RISE_FALL
         COND (B1 * A * !C1 * !C2 * !ZN) RISE_FALL
         COND (!B1 * !A * !C1 * !C2 * ZN) RISE_FALL
         COND (B1 * A * C1 * C2 * !ZN) RISE_FALL
         COND (!B1 * !A * C1 * !C2 * ZN) RISE_FALL
         COND (!B1 * A * C1 * C2 * !ZN) RISE_FALL
         COND (!B1 * A * C1 * !C2 * !ZN) RISE_FALL
         COND (!B1 * !A * C1 * C2 * !ZN) RISE_FALL
         COND (!B1 * A * !C1 * !C2 * !ZN) RISE_FALL
         COND_DEFAULT RISE_FALL)
      )
      (C1
        (COND (B1 * A * B2 * C2 * !ZN) RISE_FALL
         COND (!B1 * A * B2 * C2 * !ZN) RISE_FALL
         COND (B1 * !A * !B2 * !C2 * ZN) RISE_FALL
         COND (B1 * A * !B2 * !C2 * !ZN) RISE_FALL
         COND (!B1 * !A * !B2 * !C2 * ZN) RISE_FALL
         COND (B1 * !A * B2 * !C2 * !ZN) RISE_FALL
         COND (B1 * A * !B2 * C2 * !ZN) RISE_FALL
         COND (!B1 * A * B2 * !C2 * !ZN) RISE_FALL
         COND (!B1 * A * !B2 * C2 * !ZN) RISE_FALL
         COND (!B1 * A * !B2 * !C2 * !ZN) RISE_FALL
         COND (B1 * !A * B2 * C2 * !ZN) RISE_FALL
         COND (!B1 * !A * B2 * !C2 * ZN) RISE_FALL
         COND (B1 * A * B2 * !C2 * !ZN) RISE_FALL
         COND_DEFAULT RISE_FALL)
      )
      (C2
        (COND (B1 * A * !B2 * C1 * !ZN) RISE_FALL
         COND (!B1 * A * !B2 * !C1 * !ZN) RISE_FALL
         COND (!B1 * !A * B2 * !C1 * ZN) RISE_FALL
         COND (B1 * A * B2 * !C1 * !ZN) RISE_FALL
         COND (!B1 * A * !B2 * C1 * !ZN) RISE_FALL
         COND (!B1 * A * B2 * !C1 * !ZN) RISE_FALL
         COND (B1 * !A * B2 * !C1 * !ZN) RISE_FALL
         COND (B1 * A * B2 * C1 * !ZN) RISE_FALL
         COND (B1 * A * !B2 * !C1 * !ZN) RISE_FALL
         COND (B1 * !A * !B2 * !C1 * ZN) RISE_FALL
         COND (B1 * !A * B2 * C1 * !ZN) RISE_FALL
         COND (!B1 * A * B2 * C1 * !ZN) RISE_FALL
         COND (!B1 * !A * !B2 * !C1 * ZN) RISE_FALL
         COND_DEFAULT RISE_FALL)
      )
      (ZN
        (COND ((!B2 * !B1 * !C2) | (!C1 * !B1 * !C2) | (!B2 * !B1 * !C1)) RISE_FALL (IOPATH A)
         COND ((B2 * !B1 * !C1 * C2) | (B2 * !B1 * C1 * !C2)) RISE_FALL (IOPATH A)
         COND ((!B2 * B1 * !C1) | (!B2 * B1 * !C2)) RISE_FALL (IOPATH A)
         COND (B2 * !A * !C1 * !C2) RISE_FALL (IOPATH B1)
         COND (B2 * !A * !C1 * C2) RISE_FALL (IOPATH B1)
         COND (B2 * !A * C1 * !C2) RISE_FALL (IOPATH B1)
         COND (B1 * !A * !C1 * !C2) RISE_FALL (IOPATH B2)
         COND (B1 * !A * !C1 * C2) RISE_FALL (IOPATH B2)
         COND (B1 * !A * C1 * !C2) RISE_FALL (IOPATH B2)
         COND (!B1 * !A * !B2 * C2) RISE_FALL (IOPATH C1)
         COND (!B1 * !A * B2 * C2) RISE_FALL (IOPATH C1)
         COND (B1 * !A * !B2 * C2) RISE_FALL (IOPATH C1)
         COND (!B1 * !A * !B2 * C1) RISE_FALL (IOPATH C2)
         COND (!B1 * !A * B2 * C1) RISE_FALL (IOPATH C2)
         COND (B1 * !A * !B2 * C1) RISE_FALL (IOPATH C2)
         COND_DEFAULT RISE_FALL (IOPATH A))
      )
    )
    (LEAKAGE
     (COND (!B1 * !A * !B2 * !C1 * !C2)
      COND (!B1 * A * !B2 * !C1 * !C2)
      COND (B1 * !A * !B2 * !C1 * !C2)
      COND (B1 * A * !B2 * !C1 * !C2)
      COND (!B1 * !A * B2 * !C1 * !C2)
      COND (!B1 * A * B2 * !C1 * !C2)
      COND (B1 * !A * B2 * !C1 * !C2)
      COND (B1 * A * B2 * !C1 * !C2)
      COND (!B1 * !A * !B2 * !C1 * C2)
      COND (!B1 * A * !B2 * !C1 * C2)
      COND (B1 * !A * !B2 * !C1 * C2)
      COND (B1 * A * !B2 * !C1 * C2)
      COND (!B1 * !A * B2 * !C1 * C2)
      COND (!B1 * A * B2 * !C1 * C2)
      COND (B1 * !A * B2 * !C1 * C2)
      COND (B1 * A * B2 * !C1 * C2)
      COND (!B1 * !A * !B2 * C1 * !C2)
      COND (!B1 * A * !B2 * C1 * !C2)
      COND (B1 * !A * !B2 * C1 * !C2)
      COND (B1 * A * !B2 * C1 * !C2)
      COND (!B1 * !A * B2 * C1 * !C2)
      COND (!B1 * A * B2 * C1 * !C2)
      COND (B1 * !A * B2 * C1 * !C2)
      COND (B1 * A * B2 * C1 * !C2)
      COND (!B1 * !A * !B2 * C1 * C2)
      COND (!B1 * A * !B2 * C1 * C2)
      COND (B1 * !A * !B2 * C1 * C2)
      COND (B1 * A * !B2 * C1 * C2)
      COND (!B1 * !A * B2 * C1 * C2)
      COND (!B1 * A * B2 * C1 * C2)
      COND (B1 * !A * B2 * C1 * C2)
      COND (B1 * A * B2 * C1 * C2)
      COND_DEFAULT)
    )
  )
  (MODULE "AOI221_X2"
    (PORT
      (A
        (COND (B2 * B1 * C1 * C2 * !ZN) RISE_FALL
         COND (B2 * B1 * !C1 * !C2 * !ZN) RISE_FALL
         COND (B2 * !B1 * C1 * C2 * !ZN) RISE_FALL
         COND (!B2 * B1 * C1 * C2 * !ZN) RISE_FALL
         COND (B2 * B1 * C1 * !C2 * !ZN) RISE_FALL
         COND (B2 * B1 * !C1 * C2 * !ZN) RISE_FALL
         COND (!B2 * !B1 * C1 * C2 * !ZN) RISE_FALL
         COND_DEFAULT RISE_FALL)
      )
      (B1
        (COND (B2 * A * !C1 * C2 * !ZN) RISE_FALL
         COND (!B2 * !A * C1 * !C2 * ZN) RISE_FALL
         COND (!B2 * !A * !C1 * C2 * ZN) RISE_FALL
         COND (B2 * A * !C1 * !C2 * !ZN) RISE_FALL
         COND (B2 * !A * C1 * C2 * !ZN) RISE_FALL
         COND (B2 * A * C1 * !C2 * !ZN) RISE_FALL
         COND (!B2 * A * C1 * !C2 * !ZN) RISE_FALL
         COND (B2 * A * C1 * C2 * !ZN) RISE_FALL
         COND (!B2 * A * C1 * C2 * !ZN) RISE_FALL
         COND (!B2 * !A * C1 * C2 * !ZN) RISE_FALL
         COND (!B2 * !A * !C1 * !C2 * ZN) RISE_FALL
         COND (!B2 * A * !C1 * C2 * !ZN) RISE_FALL
         COND (!B2 * A * !C1 * !C2 * !ZN) RISE_FALL
         COND_DEFAULT RISE_FALL)
      )
      (B2
        (COND (!B1 * A * !C1 * C2 * !ZN) RISE_FALL
         COND (!B1 * !A * !C1 * C2 * ZN) RISE_FALL
         COND (B1 * A * C1 * !C2 * !ZN) RISE_FALL
         COND (B1 * A * !C1 * C2 * !ZN) RISE_FALL
         COND (B1 * !A * C1 * C2 * !ZN) RISE_FALL
         COND (B1 * A * !C1 * !C2 * !ZN) RISE_FALL
         COND (!B1 * !A * !C1 * !C2 * ZN) RISE_FALL
         COND (B1 * A * C1 * C2 * !ZN) RISE_FALL
         COND (!B1 * !A * C1 * !C2 * ZN) RISE_FALL
         COND (!B1 * A * C1 * C2 * !ZN) RISE_FALL
         COND (!B1 * A * C1 * !C2 * !ZN) RISE_FALL
         COND (!B1 * !A * C1 * C2 * !ZN) RISE_FALL
         COND (!B1 * A * !C1 * !C2 * !ZN) RISE_FALL
         COND_DEFAULT RISE_FALL)
      )
      (C1
        (COND (B1 * A * B2 * C2 * !ZN) RISE_FALL
         COND (!B1 * A * B2 * C2 * !ZN) RISE_FALL
         COND (B1 * !A * !B2 * !C2 * ZN) RISE_FALL
         COND (B1 * A * !B2 * !C2 * !ZN) RISE_FALL
         COND (!B1 * !A * !B2 * !C2 * ZN) RISE_FALL
         COND (B1 * !A * B2 * !C2 * !ZN) RISE_FALL
         COND (B1 * A * !B2 * C2 * !ZN) RISE_FALL
         COND (!B1 * A * B2 * !C2 * !ZN) RISE_FALL
         COND (!B1 * A * !B2 * C2 * !ZN) RISE_FALL
         COND (!B1 * A * !B2 * !C2 * !ZN) RISE_FALL
         COND (B1 * !A * B2 * C2 * !ZN) RISE_FALL
         COND (!B1 * !A * B2 * !C2 * ZN) RISE_FALL
         COND (B1 * A * B2 * !C2 * !ZN) RISE_FALL
         COND_DEFAULT RISE_FALL)
      )
      (C2
        (COND (B1 * A * !B2 * C1 * !ZN) RISE_FALL
         COND (!B1 * A * !B2 * !C1 * !ZN) RISE_FALL
         COND (!B1 * !A * B2 * !C1 * ZN) RISE_FALL
         COND (B1 * A * B2 * !C1 * !ZN) RISE_FALL
         COND (!B1 * A * !B2 * C1 * !ZN) RISE_FALL
         COND (!B1 * A * B2 * !C1 * !ZN) RISE_FALL
         COND (B1 * !A * B2 * !C1 * !ZN) RISE_FALL
         COND (B1 * A * B2 * C1 * !ZN) RISE_FALL
         COND (B1 * A * !B2 * !C1 * !ZN) RISE_FALL
         COND (B1 * !A * !B2 * !C1 * ZN) RISE_FALL
         COND (B1 * !A * B2 * C1 * !ZN) RISE_FALL
         COND (!B1 * A * B2 * C1 * !ZN) RISE_FALL
         COND (!B1 * !A * !B2 * !C1 * ZN) RISE_FALL
         COND_DEFAULT RISE_FALL)
      )
      (ZN